{"name":"owens_vscode_profile","settings":"{\"settings\":\"{\\n    \\\"terminal.integrated.commandsToSkipShell\\\": [\\n        \\\"language-julia.interrupt\\\"\\n    ],\\n    \\\"julia.symbolCacheDownload\\\": true,\\n    \\\"julia.enableTelemetry\\\": false,\\n    \\\"editor.multiCursorModifier\\\": \\\"ctrlCmd\\\",\\n    \\\"workbench.colorTheme\\\": \\\"Atom One Dark\\\",\\n    \\\"diffEditor.ignoreTrimWhitespace\\\": false,\\n    \\\"explorer.confirmDelete\\\": false,\\n    \\\"julia.enableCrashReporter\\\": false,\\n    \\\"julia.execution.saveOnEval\\\": true,\\n    \\\"files.associations\\\": {\\n        \\\"*.jl\\\": \\\"julia\\\"\\n    },\\n    \\\"julia.additionalArgs\\\": [\\n\\n\\n    \\n    ],\\n    \\\"julia.debuggerDefaultCompiled\\\": [    \\n        \\\"ALL_MODULES_EXCEPT_MAIN\\\",   \\n        \\\"-OWENS.\\\",     \\n        \\\"-OWENSAero.\\\",\\n        \\\"-OWENSOpenFASTWrappers.\\\",     \\n        \\\"-OWENSFEA.\\\"   \\n    ]\\n\\n    \\\"explorer.confirmDragAndDrop\\\": false,\\n    \\\"git.openRepositoryInParentFolders\\\": \\\"never\\\",\\n    \\\"extensions.ignoreRecommendations\\\": true,\\n    \\\"julia.cellDelimiters\\\": [\\n\\n        \\\"^##(?!#)\\\",\\n        \\\"^#(\\\\\\\\s?)%%\\\",\\n        \\\"^#-\\\"\\n    ],\\n    \\\"npm.exclude\\\": \\\"\\\"\\n}\"}","keybindings":"{\"keybindings\":\"// Place your key bindings in this file to override the defaultsauto[]\\n[\\n    {\\n        \\\"key\\\": \\\"cmd+w\\\",\\n        \\\"command\\\": \\\"-workbench.action.terminal.killEditor\\\",\\n        \\\"when\\\": \\\"terminalEditorFocus && terminalFocus && terminalHasBeenCreated && resourceScheme == 'vscode-terminal' || terminalEditorFocus && terminalFocus && terminalProcessSupported && resourceScheme == 'vscode-terminal'\\\"\\n    },\\n    {\\n        \\\"key\\\": \\\"ctrl+d\\\",\\n        \\\"command\\\": \\\"workbench.action.terminal.killAll\\\"\\n    },\\n    {\\n        \\\"key\\\": \\\"ctrl+i ctrl+c\\\",\\n        \\\"command\\\": \\\"-language-julia.clearAllInlineResultsInEditor\\\",\\n        \\\"when\\\": \\\"editorTextFocus && activeEditor != 'workbench.editor.notebook' && editorLangId in 'julia.supportedLanguageIds'\\\"\\n    },\\n    {\\n        \\\"key\\\": \\\"cmd+enter\\\",\\n        \\\"command\\\": \\\"language-julia.startREPL\\\"\\n    },\\n    {\\n        \\\"key\\\": \\\"alt+j alt+o\\\",\\n        \\\"command\\\": \\\"-language-julia.startREPL\\\"\\n    },\\n    {\\n        \\\"key\\\": \\\"ctrl+d\\\",\\n        \\\"command\\\": \\\"-deleteRight\\\",\\n        \\\"when\\\": \\\"textInputFocus\\\"\\n    },\\n    {\\n        \\\"key\\\": \\\"cmd+enter\\\",\\n        \\\"command\\\": \\\"-editor.action.insertLineAfter\\\",\\n        \\\"when\\\": \\\"editorTextFocus && !editorReadonly\\\"\\n    },\\n    {\\n        \\\"key\\\": \\\"shift+cmd+enter\\\",\\n        \\\"command\\\": \\\"-editor.action.insertLineBefore\\\",\\n        \\\"when\\\": \\\"editorTextFocus && !editorReadonly\\\"\\n    },\\n    {\\n        \\\"key\\\": \\\"shift+cmd+enter\\\",\\n        \\\"command\\\": \\\"-notebook.cell.insertCodeCellAbove\\\",\\n        \\\"when\\\": \\\"notebookCellListFocused && !inputFocus\\\"\\n    },\\n    {\\n        \\\"key\\\": \\\"cmd+k shift+enter\\\",\\n        \\\"command\\\": \\\"-workbench.action.pinEditor\\\",\\n        \\\"when\\\": \\\"!activeEditorIsPinned\\\"\\n    },\\n    {\\n        \\\"key\\\": \\\"cmd+k shift+enter\\\",\\n        \\\"command\\\": \\\"-workbench.action.unpinEditor\\\",\\n        \\\"when\\\": \\\"activeEditorIsPinned\\\"\\n    },\\n    {\\n        \\\"key\\\": \\\"shift+cmd+enter\\\",\\n        \\\"command\\\": \\\"-list.toggleSelection\\\",\\n        \\\"when\\\": \\\"listFocus && !inputFocus\\\"\\n    },\\n    {\\n        \\\"key\\\": \\\"shift+cmd+enter\\\",\\n        \\\"command\\\": \\\"-search.action.replaceAllInFile\\\",\\n        \\\"when\\\": \\\"fileMatchFocus && replaceActive && searchViewletVisible\\\"\\n    },\\n    {\\n        \\\"key\\\": \\\"shift+cmd+enter\\\",\\n        \\\"command\\\": \\\"-search.action.replaceAllInFolder\\\",\\n        \\\"when\\\": \\\"folderMatchFocus && replaceActive && searchViewletVisible\\\"\\n    },\\n    {\\n        \\\"key\\\": \\\"ctrl+cmd+enter\\\",\\n        \\\"command\\\": \\\"language-julia.runEditorContents\\\"\\n    },\\n    {\\n        \\\"key\\\": \\\"cmd+j cmd+k\\\",\\n        \\\"command\\\": \\\"language-julia.restartREPL\\\"\\n    },\\n    {\\n        \\\"key\\\": \\\"alt+j alt+r\\\",\\n        \\\"command\\\": \\\"-language-julia.restartREPL\\\"\\n    },\\n    {\\n        \\\"key\\\": \\\"shift+cmd+enter\\\",\\n        \\\"command\\\": \\\"language-julia.executeActiveFile\\\"\\n    },\\n    {\\n        \\\"key\\\": \\\"cmd+j cmd+c\\\",\\n        \\\"command\\\": \\\"workbench.action.terminal.clear\\\"\\n    },\\n    {\\n        \\\"key\\\": \\\"cmd+k\\\",\\n        \\\"command\\\": \\\"-workbench.action.terminal.clear\\\",\\n        \\\"when\\\": \\\"terminalFocus && terminalHasBeenCreated || terminalFocus && terminalProcessSupported\\\"\\n    },\\n    {\\n        \\\"key\\\": \\\"cmd+j cmd+w\\\",\\n        \\\"command\\\": \\\"REPLVariables.focus\\\"\\n    },\\n    {\\n        \\\"key\\\": \\\"alt+j alt+w\\\",\\n        \\\"command\\\": \\\"-REPLVariables.focus\\\"\\n    }\\n]\",\"platform\":1}","extensions":"[{\"identifier\":{\"id\":\"andischerer.theme-atom-one-dark\",\"uuid\":\"b5eaebe8-c8c7-495a-80c5-3ba4a7a91c35\"},\"displayName\":\"Atom One Dark Syntax Theme\"},{\"identifier\":{\"id\":\"fortran-lang.linter-gfortran\",\"uuid\":\"64379b4d-40cd-415a-8643-b07572d4a243\"},\"displayName\":\"Modern Fortran\"},{\"identifier\":{\"id\":\"janisdd.vscode-edit-csv\",\"uuid\":\"72e9b049-d75d-415c-96e1-d6e74f0e3074\"},\"displayName\":\"Edit csv\"},{\"identifier\":{\"id\":\"julialang.language-julia\",\"uuid\":\"038dd41f-4a41-48e3-87de-ab2ea4310780\"},\"displayName\":\"Julia\"},{\"identifier\":{\"id\":\"ms-vscode.cpptools\",\"uuid\":\"690b692e-e8a9-493f-b802-8089d50ac1b2\"},\"displayName\":\"C/C++\"},{\"identifier\":{\"id\":\"tomoki1207.pdf\",\"uuid\":\"4386e6f6-ec10-4463-9d23-c24278718947\"},\"displayName\":\"vscode-pdf\"}]","globalState":"{\"storage\":{\"workbench.panel.repl.hidden\":\"[{\\\"id\\\":\\\"workbench.panel.repl.view\\\",\\\"isHidden\\\":false}]\",\"workbench.panel.pinnedPanels\":\"[{\\\"id\\\":\\\"workbench.panel.markers\\\",\\\"pinned\\\":true,\\\"visible\\\":true,\\\"order\\\":0},{\\\"id\\\":\\\"workbench.panel.output\\\",\\\"pinned\\\":true,\\\"visible\\\":true,\\\"order\\\":1},{\\\"id\\\":\\\"workbench.panel.repl\\\",\\\"pinned\\\":true,\\\"visible\\\":true,\\\"order\\\":2},{\\\"id\\\":\\\"workbench.panel.testResults\\\",\\\"pinned\\\":true,\\\"visible\\\":false,\\\"order\\\":3},{\\\"id\\\":\\\"terminal\\\",\\\"pinned\\\":true,\\\"visible\\\":true,\\\"order\\\":3},{\\\"id\\\":\\\"~remote.forwardedPortsContainer\\\",\\\"pinned\\\":true,\\\"visible\\\":true,\\\"order\\\":5},{\\\"id\\\":\\\"workbench.view.extension.jupyter-variables\\\",\\\"pinned\\\":true,\\\"visible\\\":false,\\\"order\\\":6},{\\\"id\\\":\\\"refactorPreview\\\",\\\"pinned\\\":true,\\\"visible\\\":false}]\",\"workbench.view.debug.state.hidden\":\"[{\\\"id\\\":\\\"workbench.debug.welcome\\\",\\\"isHidden\\\":false},{\\\"id\\\":\\\"workbench.debug.variablesView\\\",\\\"isHidden\\\":false},{\\\"id\\\":\\\"workbench.debug.watchExpressionsView\\\",\\\"isHidden\\\":false},{\\\"id\\\":\\\"workbench.debug.callStackView\\\",\\\"isHidden\\\":false},{\\\"id\\\":\\\"workbench.debug.loadedScriptsView\\\",\\\"isHidden\\\":false},{\\\"id\\\":\\\"workbench.debug.breakPointsView\\\",\\\"isHidden\\\":false},{\\\"id\\\":\\\"jsBrowserBreakpoints\\\",\\\"isHidden\\\":false},{\\\"id\\\":\\\"jsExcludedCallers\\\",\\\"isHidden\\\":false},{\\\"id\\\":\\\"debugger-compiled\\\",\\\"isHidden\\\":false},{\\\"id\\\":\\\"CppSshTargetsView\\\",\\\"isHidden\\\":false}]\",\"memento/gettingStartedService\":\"{\\\"installGit\\\":{\\\"done\\\":true},\\\"pickAFolderTask-Mac\\\":{\\\"done\\\":true},\\\"pickColorTheme\\\":{\\\"done\\\":true},\\\"pickColorThemeWeb\\\":{\\\"done\\\":true},\\\"splitview\\\":{\\\"done\\\":true},\\\"debugging\\\":{\\\"done\\\":true},\\\"scmClone\\\":{\\\"done\\\":true},\\\"scmSetup\\\":{\\\"done\\\":true},\\\"scm\\\":{\\\"done\\\":true},\\\"tasks\\\":{\\\"done\\\":true},\\\"shortcuts\\\":{\\\"done\\\":true},\\\"pickAFolderTask-WebWeb\\\":{\\\"done\\\":true},\\\"ms-python.python#pythonDataScienceWelcome#python.createNewNotebook\\\":{\\\"done\\\":true},\\\"ms-toolsai.jupyter#jupyterWelcome#ipynb.newUntitledIpynb\\\":{\\\"done\\\":true},\\\"ms-python.python#pythonWelcome#python.createPythonFile\\\":{\\\"done\\\":true},\\\"ms-vscode.cpptools#cppWelcome#verify.compiler.mac\\\":{\\\"done\\\":true},\\\"ms-vscode.cpptools#cppWelcome#verify.compiler.linux\\\":{\\\"done\\\":true},\\\"ms-vscode.cpptools#cppWelcome#verify.compiler.windows\\\":{\\\"done\\\":true},\\\"ms-vscode.cpptools#cppWelcome#create.cpp.file\\\":{\\\"done\\\":true},\\\"ms-vscode.cpptools#cppWelcome#verify.compiler.windows10\\\":{\\\"done\\\":true},\\\"ms-vscode.cpptools#cppWelcome#verify.compiler.windows11\\\":{\\\"done\\\":true},\\\"settings\\\":{\\\"done\\\":true},\\\"quickOpen\\\":{\\\"done\\\":true},\\\"quickOpenWeb\\\":{\\\"done\\\":true}}\",\"workbench.welcomePage.walkthroughMetadata\":\"[[\\\"vscode.typescript-language-features#nodejsWelcome\\\",{\\\"firstSeen\\\":1669849872097,\\\"stepIDs\\\":[\\\"walkthroughs.nodejsWelcome.downloadNode.forMacOrWindows\\\",\\\"walkthroughs.nodejsWelcome.downloadNode.forLinux\\\",\\\"walkthroughs.nodejsWelcome.makeJsFile\\\",\\\"walkthroughs.nodejsWelcome.debugJsFile\\\",\\\"walkthroughs.nodejsWelcome.learnMoreAboutJs\\\"],\\\"manaullyOpened\\\":false}],[\\\"ms-python.python#pythonWelcome\\\",{\\\"firstSeen\\\":1675119930820,\\\"stepIDs\\\":[\\\"python.createPythonFile\\\",\\\"python.installPythonWin8\\\",\\\"python.installPythonMac\\\",\\\"python.installPythonLinux\\\",\\\"python.selectInterpreter\\\",\\\"python.createEnvironment\\\",\\\"python.runAndDebug\\\",\\\"python.learnMoreWithDS\\\"],\\\"manaullyOpened\\\":false}],[\\\"ms-python.python#pythonDataScienceWelcome\\\",{\\\"firstSeen\\\":1675119930820,\\\"stepIDs\\\":[\\\"python.installJupyterExt\\\",\\\"python.createNewNotebook\\\",\\\"python.openInteractiveWindow\\\",\\\"python.dataScienceLearnMore\\\"],\\\"manaullyOpened\\\":false}],[\\\"ms-toolsai.jupyter#jupyterWelcome\\\",{\\\"firstSeen\\\":1675119930820,\\\"stepIDs\\\":[\\\"ipynb.newUntitledIpynb\\\",\\\"jupyter.selectKernel\\\",\\\"jupyter.exploreAndDebug\\\",\\\"jupyter.dataScienceLearnMore\\\"],\\\"manaullyOpened\\\":false}],[\\\"vscode.typescript-language-features#tempNodejsWelcome\\\",{\\\"firstSeen\\\":1684255921744,\\\"stepIDs\\\":[],\\\"manaullyOpened\\\":false}],[\\\"ms-vscode.cpptools#cppWelcome\\\",{\\\"firstSeen\\\":1687537628107,\\\"stepIDs\\\":[\\\"awaiting.activation.mac\\\",\\\"awaiting.activation.linux\\\",\\\"awaiting.activation.windows\\\",\\\"no.compilers.found.mac\\\",\\\"no.compilers.found.linux\\\",\\\"no.compilers.found.windows\\\",\\\"verify.compiler.mac\\\",\\\"verify.compiler.linux\\\",\\\"verify.compiler.windows\\\",\\\"create.cpp.file\\\",\\\"relaunch.developer.command.prompt.windows\\\",\\\"run.project.mac\\\",\\\"run.project.linux\\\",\\\"run.project.windows\\\",\\\"customize.debugging.linux\\\",\\\"customize.debugging.windows\\\",\\\"customize.debugging.mac\\\"],\\\"manaullyOpened\\\":false}]]\",\"workbench.panel.alignment\":\"center\",\"workbench.activity.pinnedViewlets2\":\"[{\\\"id\\\":\\\"workbench.view.explorer\\\",\\\"pinned\\\":true,\\\"visible\\\":true,\\\"order\\\":0},{\\\"id\\\":\\\"workbench.view.search\\\",\\\"pinned\\\":true,\\\"visible\\\":true,\\\"order\\\":1},{\\\"id\\\":\\\"workbench.view.scm\\\",\\\"pinned\\\":true,\\\"visible\\\":true,\\\"order\\\":2},{\\\"id\\\":\\\"workbench.view.debug\\\",\\\"pinned\\\":true,\\\"visible\\\":true,\\\"order\\\":3},{\\\"id\\\":\\\"workbench.view.extensions\\\",\\\"pinned\\\":true,\\\"visible\\\":true,\\\"order\\\":4},{\\\"id\\\":\\\"workbench.view.remote\\\",\\\"pinned\\\":true,\\\"visible\\\":false,\\\"order\\\":4},{\\\"id\\\":\\\"workbench.view.extension.test\\\",\\\"pinned\\\":true,\\\"visible\\\":false,\\\"order\\\":6},{\\\"id\\\":\\\"workbench.view.extension.references-view\\\",\\\"pinned\\\":true,\\\"visible\\\":false,\\\"order\\\":7},{\\\"id\\\":\\\"workbench.view.extension.jupyter\\\",\\\"pinned\\\":true,\\\"visible\\\":false,\\\"order\\\":9},{\\\"id\\\":\\\"workbench.panel.chatSidebar\\\",\\\"pinned\\\":true,\\\"visible\\\":false,\\\"order\\\":100},{\\\"id\\\":\\\"workbench.view.editSessions\\\",\\\"pinned\\\":true,\\\"visible\\\":false},{\\\"id\\\":\\\"workbench.view.sync\\\",\\\"pinned\\\":true,\\\"visible\\\":false},{\\\"id\\\":\\\"userDataProfiles\\\",\\\"pinned\\\":true,\\\"visible\\\":false}]\",\"workbench.statusbar.hidden\":\"[\\\"status.workspaceTrust.1669849871489\\\",\\\"status.workspaceTrust.1669849887081\\\",\\\"status.workspaceTrust.263e634c59c80abce0dfc50a15ec4751\\\",\\\"status.workspaceTrust.1669915352276\\\",\\\"status.workspaceTrust.1669915363351\\\",\\\"status.workspaceTrust.8d38c646e44654fa346e92d9cec28a70\\\",\\\"status.workspaceTrust.1670006234423\\\",\\\"status.workspaceTrust.1670006310982\\\",\\\"status.workspaceTrust.17b449fa0036b5f003fec510963c0505\\\",\\\"status.workspaceTrust.1670006461363\\\",\\\"status.workspaceTrust.1670006523020\\\",\\\"status.workspaceTrust.b84c547339d9cce6494e20042a1f382a\\\",\\\"status.workspaceTrust.1670016824934\\\",\\\"status.workspaceTrust.71a69bbb30d4bbc485551a792bb07ced\\\",\\\"status.workspaceTrust.1670017105434\\\",\\\"status.workspaceTrust.100ae6e5e0c734df189b14e11d8831ee\\\",\\\"status.workspaceTrust.1670017877584\\\",\\\"status.workspaceTrust.0676cb507af2b14bb33025df01a3395c\\\",\\\"status.workspaceTrust.1670082262505\\\",\\\"status.workspaceTrust.b449845321bb3c7d7a4481854babfb27\\\",\\\"status.workspaceTrust.1670083481338\\\",\\\"status.workspaceTrust.e68eda3f5eabf029868baf379f2d21ce\\\",\\\"status.workspaceTrust.1670281042526\\\",\\\"status.workspaceTrust.1670284006547\\\",\\\"status.workspaceTrust.1bc5c146bb48461a53173623a309d1e8\\\",\\\"status.workspaceTrust.1670346729887\\\",\\\"status.workspaceTrust.ec0b02c501a40cfcd693ec764c29d9b5\\\",\\\"status.workspaceTrust.1670439785031\\\",\\\"status.workspaceTrust.1670471039684\\\",\\\"status.workspaceTrust.1670471044373\\\",\\\"status.workspaceTrust.1670519883844\\\",\\\"status.workspaceTrust.8bdd428bd2fe84b6c44551149f6082cf\\\",\\\"status.workspaceTrust.1670630479660\\\",\\\"status.workspaceTrust.1670867094989\\\",\\\"status.workspaceTrust.1670869423352\\\",\\\"status.workspaceTrust.1670879804377\\\",\\\"status.workspaceTrust.1670961406937\\\",\\\"status.workspaceTrust.1670961550785\\\",\\\"status.workspaceTrust.1670961694726\\\",\\\"status.workspaceTrust.1670963549185\\\",\\\"status.workspaceTrust.1670967184203\\\",\\\"status.workspaceTrust.1670968646671\\\",\\\"status.workspaceTrust.1670968775871\\\",\\\"status.workspaceTrust.1670975793544\\\",\\\"status.workspaceTrust.47b3f636956fc5a3b105016dc6e3e1fd\\\",\\\"status.workspaceTrust.1671051327301\\\",\\\"status.workspaceTrust.1671055613092\\\",\\\"status.workspaceTrust.1671062166781\\\",\\\"status.workspaceTrust.1671062288916\\\",\\\"status.workspaceTrust.1671062327621\\\",\\\"status.workspaceTrust.1671117364863\\\",\\\"status.workspaceTrust.1671128156951\\\",\\\"status.workspaceTrust.1671128349499\\\",\\\"status.workspaceTrust.1671132235258\\\",\\\"status.workspaceTrust.1671142469182\\\",\\\"status.workspaceTrust.1671147791857\\\",\\\"status.workspaceTrust.fc043b073b12dc0b9e8372629d42639b\\\",\\\"status.workspaceTrust.1671162739955\\\",\\\"status.workspaceTrust.1671209682548\\\",\\\"status.workspaceTrust.bd4289a71a96c4edbdd638804bc49140\\\",\\\"status.workspaceTrust.1671212150828\\\",\\\"status.workspaceTrust.e32dca82eae2c656db02bc347d0942a3\\\",\\\"status.workspaceTrust.1671212418306\\\",\\\"status.workspaceTrust.8b5053a031c7b25d4e4346c05b1e2abc\\\",\\\"status.workspaceTrust.1671212545023\\\",\\\"status.workspaceTrust.1671213497543\\\",\\\"status.workspaceTrust.b3f7e1344410ff67ac6a988c9e5ee887\\\",\\\"status.workspaceTrust.1671215353778\\\",\\\"status.workspaceTrust.1671215395824\\\",\\\"status.workspaceTrust.1671217152092\\\",\\\"status.workspaceTrust.1671220923375\\\",\\\"status.workspaceTrust.1671221886605\\\",\\\"status.workspaceTrust.1671226580171\\\",\\\"status.workspaceTrust.1671474524751\\\",\\\"status.workspaceTrust.1671490784683\\\",\\\"status.workspaceTrust.1671507244112\\\",\\\"status.workspaceTrust.1673467803100\\\",\\\"status.workspaceTrust.e673d263db1a27822a6a1946c90f4c73\\\",\\\"status.workspaceTrust.1673467923121\\\",\\\"status.workspaceTrust.c90b534e5e9fd2c2c9e114d7fbe93d5a\\\",\\\"status.workspaceTrust.1673468189577\\\",\\\"status.workspaceTrust.1673892795806\\\",\\\"status.workspaceTrust.1673970512561\\\",\\\"status.workspaceTrust.1673970807317\\\",\\\"status.workspaceTrust.1673970918172\\\",\\\"status.workspaceTrust.1673972088633\\\",\\\"status.workspaceTrust.1674081080203\\\",\\\"status.workspaceTrust.1674084148772\\\",\\\"status.workspaceTrust.18d8c377182c37d021d22131805c4ade\\\",\\\"status.workspaceTrust.1674084233199\\\",\\\"status.workspaceTrust.cbc6809c4427836424ba45f1c2b13c31\\\",\\\"status.workspaceTrust.386c96041c0635a9a2282ed4911a7836\\\",\\\"status.workspaceTrust.0746d6c44077bbfaea740f960c69f94c\\\",\\\"status.workspaceTrust.1674259135060\\\",\\\"status.workspaceTrust.8cef86f038504c37522cfc0749cb9a4e\\\",\\\"status.workspaceTrust.1674597821312\\\",\\\"status.workspaceTrust.1674774206683\\\",\\\"status.workspaceTrust.1674774260415\\\",\\\"status.workspaceTrust.1674775342866\\\",\\\"status.workspaceTrust.1674776229859\\\",\\\"status.workspaceTrust.5977421dcf6515748362819e3e8bc8db\\\",\\\"status.workspaceTrust.1674776262528\\\",\\\"status.workspaceTrust.1674779970557\\\",\\\"status.workspaceTrust.1675102451069\\\",\\\"status.workspaceTrust.1675102460666\\\",\\\"status.workspaceTrust.0a14a5518c4d5bce0226000bb2c41997\\\",\\\"status.workspaceTrust.1675187883267\\\",\\\"status.workspaceTrust.1675195546359\\\",\\\"status.workspaceTrust.6a7255dfe6df91c10a5920bb2f18b52d\\\",\\\"status.workspaceTrust.1675360976637\\\",\\\"status.workspaceTrust.1675438699546\\\",\\\"status.workspaceTrust.c7de24809abfc91c28c429a663c624ea\\\",\\\"status.workspaceTrust.1675438763000\\\",\\\"status.workspaceTrust.1675440950535\\\",\\\"status.workspaceTrust.1675445733842\\\",\\\"status.workspaceTrust.1675453567253\\\",\\\"status.workspaceTrust.1675697962520\\\",\\\"status.workspaceTrust.1675697983239\\\",\\\"status.workspaceTrust.acf90a91f10af0212a93ca6063ec3015\\\",\\\"status.workspaceTrust.1675701758445\\\",\\\"status.workspaceTrust.1675702805435\\\",\\\"status.workspaceTrust.d83d74a1c87a91e22df3e726735e15a4\\\",\\\"status.workspaceTrust.1675712451407\\\",\\\"status.workspaceTrust.1675719507995\\\",\\\"status.workspaceTrust.9d1aeea1c770edd23fb077a7955727ed\\\",\\\"status.workspaceTrust.1675894877502\\\",\\\"status.workspaceTrust.1675972459480\\\",\\\"status.workspaceTrust.1675972754212\\\",\\\"status.workspaceTrust.c6f9920f177b4354ab1b1ea51004f093\\\",\\\"status.workspaceTrust.1675972792796\\\",\\\"status.workspaceTrust.1675972804442\\\",\\\"status.workspaceTrust.1676054755745\\\",\\\"status.workspaceTrust.1676060886972\\\",\\\"status.workspaceTrust.1676317979890\\\",\\\"status.workspaceTrust.1676318741368\\\",\\\"status.workspaceTrust.e4d04e4f1237893b9b3b02c66fcf7331\\\",\\\"status.workspaceTrust.1676399447118\\\",\\\"status.workspaceTrust.1677003463760\\\",\\\"status.workspaceTrust.1677093085405\\\",\\\"status.workspaceTrust.1677259090666\\\",\\\"status.workspaceTrust.1677260021392\\\",\\\"status.workspaceTrust.56f984033aa77f757fa8ba3ee1e33284\\\",\\\"status.workspaceTrust.1677261008430\\\",\\\"status.workspaceTrust.fcac865c8fafc0492fe38624d2c29720\\\",\\\"status.workspaceTrust.1677261116903\\\",\\\"status.workspaceTrust.1677261307778\\\",\\\"status.workspaceTrust.1677264225359\\\",\\\"status.workspaceTrust.1677271089833\\\",\\\"status.workspaceTrust.1677504994560\\\",\\\"status.workspaceTrust.1677508119589\\\",\\\"status.workspaceTrust.1677509510962\\\",\\\"status.workspaceTrust.7e71420b79eedfc5cacca8eba567752e\\\",\\\"status.workspaceTrust.1677512869247\\\",\\\"status.workspaceTrust.1677530775104\\\",\\\"status.workspaceTrust.1677612614303\\\",\\\"status.workspaceTrust.1677616339753\\\",\\\"status.workspaceTrust.49b3f9644de74cba4e2f50f685fbfe8f\\\",\\\"status.workspaceTrust.1677759823854\\\",\\\"status.workspaceTrust.19bddfba5a716b0f722aa07228b0eb29\\\",\\\"status.workspaceTrust.1677851853309\\\",\\\"status.workspaceTrust.1677852039366\\\",\\\"status.workspaceTrust.1677852233273\\\",\\\"status.workspaceTrust.1677852244547\\\",\\\"status.workspaceTrust.de34a2e83bf9f18b178b9d7ff478ce65\\\",\\\"status.workspaceTrust.1677863715505\\\",\\\"status.workspaceTrust.47c2dd4f5a7b466433a0627c913d00e3\\\",\\\"status.workspaceTrust.1678478580180\\\",\\\"status.workspaceTrust.1678478597330\\\",\\\"status.workspaceTrust.1678721527312\\\",\\\"status.workspaceTrust.1678724195525\\\",\\\"status.workspaceTrust.1678729539765\\\",\\\"status.workspaceTrust.1678735851483\\\",\\\"status.workspaceTrust.1678736125024\\\",\\\"status.workspaceTrust.1678736347895\\\",\\\"status.workspaceTrust.1678805638384\\\",\\\"status.workspaceTrust.1678806139591\\\",\\\"status.workspaceTrust.1678825136666\\\",\\\"status.workspaceTrust.c71ebae6af394aa70c795ce229f89cd5\\\",\\\"status.workspaceTrust.1678915495261\\\",\\\"status.workspaceTrust.1678975674770\\\",\\\"status.workspaceTrust.1679437263408\\\",\\\"status.workspaceTrust.1679572384601\\\",\\\"status.workspaceTrust.1679579199392\\\",\\\"status.workspaceTrust.1680130192387\\\",\\\"status.workspaceTrust.1680130320796\\\",\\\"status.workspaceTrust.1680288250098\\\",\\\"status.workspaceTrust.1680288282625\\\",\\\"status.workspaceTrust.1680288342244\\\",\\\"status.workspaceTrust.1680291623344\\\",\\\"status.workspaceTrust.58ebc2b2997d32720fc27b89f49bf102\\\",\\\"status.workspaceTrust.1680292405974\\\",\\\"status.workspaceTrust.1680537045586\\\",\\\"status.workspaceTrust.1680537771155\\\",\\\"status.workspaceTrust.3306215ed732d2be7a1fb045ed1fc49f\\\",\\\"status.workspaceTrust.1680885544607\\\",\\\"status.workspaceTrust.eee292c5fc26e2c61620222e0027a4f8\\\",\\\"status.workspaceTrust.1681163502883\\\",\\\"status.workspaceTrust.1681163901032\\\",\\\"status.workspaceTrust.1681163952254\\\",\\\"status.workspaceTrust.1681164889749\\\",\\\"status.workspaceTrust.8a54600341fb1d2e54e82150dfdbf7bc\\\",\\\"status.workspaceTrust.1681244864045\\\",\\\"status.workspaceTrust.4f69c7cc73e4025ca37ce89810412ba9\\\",\\\"status.workspaceTrust.1681245622696\\\",\\\"status.workspaceTrust.4d4b9b6b4bd596c322a19cee4c13eed0\\\",\\\"status.workspaceTrust.1681247807428\\\",\\\"status.workspaceTrust.1681248415076\\\",\\\"status.workspaceTrust.1681249318374\\\",\\\"status.workspaceTrust.1681252230608\\\",\\\"status.workspaceTrust.1681253029285\\\",\\\"status.workspaceTrust.1681253301794\\\",\\\"status.workspaceTrust.1681253448416\\\",\\\"status.workspaceTrust.1681253649673\\\",\\\"status.workspaceTrust.1681254259514\\\",\\\"status.workspaceTrust.1681328753994\\\",\\\"status.workspaceTrust.1681328874278\\\",\\\"status.workspaceTrust.1681332642233\\\",\\\"status.workspaceTrust.1681406288983\\\",\\\"status.workspaceTrust.1681418235832\\\",\\\"status.workspaceTrust.1681418958783\\\",\\\"status.workspaceTrust.1681426496686\\\",\\\"status.workspaceTrust.1681484326197\\\",\\\"status.workspaceTrust.1681486518474\\\",\\\"status.workspaceTrust.1681487281315\\\",\\\"status.workspaceTrust.1681498142742\\\",\\\"status.workspaceTrust.1681507278986\\\",\\\"status.workspaceTrust.1681743343448\\\",\\\"status.workspaceTrust.1681749932018\\\",\\\"status.workspaceTrust.1681749948544\\\",\\\"status.workspaceTrust.1681848610839\\\",\\\"status.workspaceTrust.1681848934702\\\",\\\"status.workspaceTrust.1681851888182\\\",\\\"status.workspaceTrust.4521c72bf9a974b21f659ed762744070\\\",\\\"status.workspaceTrust.1681919380226\\\",\\\"status.workspaceTrust.1681919397778\\\",\\\"status.workspaceTrust.1681934949053\\\",\\\"status.workspaceTrust.1681935053862\\\",\\\"status.workspaceTrust.1681935668297\\\",\\\"status.workspaceTrust.1681938547994\\\",\\\"status.workspaceTrust.1682008276708\\\",\\\"status.workspaceTrust.5f0285c2c07c75ab02fc6b15304caeef\\\",\\\"status.workspaceTrust.1682009077124\\\",\\\"status.workspaceTrust.1682009087221\\\",\\\"status.workspaceTrust.1682019681590\\\",\\\"status.workspaceTrust.1682020713958\\\",\\\"status.workspaceTrust.1682020751812\\\",\\\"status.workspaceTrust.1682021147256\\\",\\\"status.workspaceTrust.1682097280369\\\",\\\"status.workspaceTrust.1682100161396\\\",\\\"status.workspaceTrust.1682101012944\\\",\\\"status.workspaceTrust.1682102542330\\\",\\\"status.workspaceTrust.11ce81499d949ccc2af5bb3b26dd782f\\\",\\\"status.workspaceTrust.1682102572378\\\",\\\"status.workspaceTrust.1682372568483\\\",\\\"status.workspaceTrust.1682376674845\\\",\\\"status.workspaceTrust.1682380590980\\\",\\\"status.workspaceTrust.1682385385208\\\",\\\"status.workspaceTrust.1682452110500\\\",\\\"status.workspaceTrust.1682459676514\\\",\\\"status.workspaceTrust.1682463196410\\\",\\\"status.workspaceTrust.1682524140230\\\",\\\"status.workspaceTrust.1682528145605\\\",\\\"status.workspaceTrust.1682543326252\\\",\\\"status.debug\\\",\\\"status.workspaceTrust.1682547935330\\\",\\\"status.workspaceTrust.1682547949471\\\",\\\"status.workspaceTrust.1682612197140\\\",\\\"status.workspaceTrust.1682614227832\\\",\\\"status.workspaceTrust.1682615301159\\\",\\\"status.workspaceTrust.1682636814601\\\",\\\"status.workspaceTrust.1682725296321\\\",\\\"status.workspaceTrust.22b17fb90723bcd7dfc2fed4c6fe0c8a\\\",\\\"status.workspaceTrust.1682953099545\\\",\\\"status.workspaceTrust.1682978536357\\\",\\\"status.workspaceTrust.1683048536591\\\",\\\"status.workspaceTrust.1683056632574\\\",\\\"status.workspaceTrust.1683058328527\\\",\\\"status.workspaceTrust.1683061982921\\\",\\\"status.workspaceTrust.1683149967540\\\",\\\"status.workspaceTrust.1683213320734\\\",\\\"status.workspaceTrust.1683296358414\\\",\\\"status.workspaceTrust.1683300344057\\\",\\\"status.workspaceTrust.1683560452737\\\",\\\"status.workspaceTrust.1683564424197\\\",\\\"status.workspaceTrust.1683657977242\\\",\\\"status.workspaceTrust.1683665242907\\\",\\\"status.workspaceTrust.1683733918323\\\",\\\"status.workspaceTrust.1684255921506\\\",\\\"status.workspaceTrust.d44de58af22973e844e05593f428e10c\\\",\\\"status.workspaceTrust.1684263251662\\\",\\\"status.workspaceTrust.1684268923978\\\",\\\"status.workspaceTrust.1684278118915\\\",\\\"status.workspaceTrust.1684348363588\\\",\\\"status.workspaceTrust.1684354489704\\\",\\\"status.workspaceTrust.1684433643273\\\",\\\"status.workspaceTrust.1684435192341\\\",\\\"status.workspaceTrust.1684436429155\\\",\\\"status.workspaceTrust.1684436865822\\\",\\\"status.workspaceTrust.1684436939369\\\",\\\"status.workspaceTrust.1684447431458\\\",\\\"status.workspaceTrust.1684447882511\\\",\\\"status.workspaceTrust.1684448162836\\\",\\\"status.workspaceTrust.1684448442599\\\",\\\"status.workspaceTrust.1684448806455\\\",\\\"status.workspaceTrust.1684511500788\\\",\\\"status.workspaceTrust.1684512777578\\\",\\\"status.workspaceTrust.1684775101924\\\",\\\"status.workspaceTrust.1684776118763\\\",\\\"status.workspaceTrust.8010a40505277c6de5e8fe2ef4cc5b31\\\",\\\"status.workspaceTrust.1684776938638\\\",\\\"status.workspaceTrust.1684780667562\\\",\\\"status.workspaceTrust.1684781174528\\\",\\\"status.workspaceTrust.1684968876356\\\",\\\"status.workspaceTrust.1684970661796\\\",\\\"status.workspaceTrust.c4537dca736fbf3410ed2878e3c0af79\\\",\\\"status.workspaceTrust.1685054708193\\\",\\\"status.workspaceTrust.1685462822898\\\",\\\"status.workspaceTrust.1685462923531\\\",\\\"status.workspaceTrust.1685482178450\\\",\\\"status.workspaceTrust.1685574976907\\\",\\\"status.workspaceTrust.1685724682299\\\",\\\"status.workspaceTrust.1685725671026\\\",\\\"status.workspaceTrust.1685733224154\\\",\\\"status.workspaceTrust.1685746337416\\\",\\\"status.workspaceTrust.1685747009622\\\",\\\"status.workspaceTrust.1685987901861\\\",\\\"status.workspaceTrust.1685998252524\\\",\\\"status.workspaceTrust.15c684911e24658bc926a41c25f3f828\\\",\\\"status.workspaceTrust.1686070923874\\\",\\\"status.workspaceTrust.1686071416263\\\",\\\"status.workspaceTrust.c3ef21a707996d1514464e329f8d1d16\\\",\\\"status.workspaceTrust.1686080143644\\\",\\\"status.workspaceTrust.1686080255713\\\",\\\"status.workspaceTrust.69ace79617425a2818269dcb4333e92f\\\",\\\"status.workspaceTrust.1686091716265\\\",\\\"status.workspaceTrust.75d390836a0ba5aa2d3fab420bcc36d1\\\",\\\"status.workspaceTrust.1686179962044\\\",\\\"status.workspaceTrust.7b88baf37810d9aa3365828c2c3b2fad\\\",\\\"status.workspaceTrust.1686242283873\\\",\\\"status.workspaceTrust.1686267207566\\\",\\\"status.workspaceTrust.1686321703980\\\",\\\"status.workspaceTrust.1686326915911\\\",\\\"status.workspaceTrust.1686332030838\\\",\\\"status.workspaceTrust.1686337732353\\\",\\\"status.workspaceTrust.1686338710312\\\",\\\"status.workspaceTrust.1686582449249\\\",\\\"status.workspaceTrust.1686582495749\\\",\\\"status.workspaceTrust.1686582943155\\\",\\\"status.workspaceTrust.1686583130386\\\",\\\"status.workspaceTrust.e799e4f2417162a6e4f254033e41f698\\\",\\\"status.workspaceTrust.1686583483761\\\",\\\"status.workspaceTrust.1686583649529\\\",\\\"status.workspaceTrust.1686584343003\\\",\\\"status.workspaceTrust.1686591051880\\\",\\\"status.workspaceTrust.7d663989241f003293cdfdc9815aeae8\\\",\\\"status.workspaceTrust.1686674393417\\\",\\\"status.workspaceTrust.1686779872399\\\",\\\"status.workspaceTrust.1686783628035\\\",\\\"status.workspaceTrust.1686871260234\\\",\\\"status.workspaceTrust.1686871272846\\\",\\\"status.workspaceTrust.1686871502134\\\",\\\"status.workspaceTrust.1686927353837\\\",\\\"status.workspaceTrust.1687467806